# ================================================================
# Orca input file
# ================================================================
! HF cc-pVQZ VeryTightSCF UseSym

! PAL4

%scf
  STABPerform true
#  STABRestartUHFifUnstable true
end



* xyzfile 0 3 ../../../../chem_database/C.xyz
