# ================================================================
# Orca input file
# ================================================================
! HF def2-QZVP VeryTightSCF KDIIS UseSym

! PAL4

#%scf
#  STABPerform true
#  STABRestartUHFifUnstable true
#end



* xyzfile 0 3 ../../../../chem_database/Ni.xyz
